@<TRIPOS>MOLECULE
MOL
   10     9     1     0     0
SMALL
resp


@<TRIPOS>ATOM
      1 N1          -0.2340    -1.7870     0.0000 n4         1 MOL      -0.604624
      2 H1          -1.1620    -1.3890     0.0000 hn         1 MOL       0.397840
      3 C1           0.7220    -0.6980     0.0000 c3         1 MOL       0.052016
      4 H2          -0.0880    -2.2700     0.8750 hn         1 MOL       0.397840
      5 H3          -0.0880    -2.2700    -0.8750 hn         1 MOL       0.397840
      6 C2           0.0000     0.6420     0.0000 c          1 MOL       0.735503
      7 H4           1.3480    -0.7630     0.8900 hx         1 MOL       0.057787
      8 H5           1.3480    -0.7630    -0.8900 hx         1 MOL       0.057787
      9 O1          -1.2580     0.6790     0.0000 o          1 MOL      -0.745995
     10 O2           0.7510     1.8590     0.0000 o          1 MOL      -0.745995
@<TRIPOS>BOND
     1     1     2 1   
     2     1     3 1   
     3     1     4 1   
     4     1     5 1   
     5     3     6 1   
     6     3     7 1   
     7     3     8 1   
     8     6     9 1   
     9     6    10 1   
@<TRIPOS>SUBSTRUCTURE
     1 MOL         1 TEMP              0 ****  ****    0 ROOT
