@<TRIPOS>MOLECULE
MOL
   10     9     1     0     0
SMALL
resp


@<TRIPOS>ATOM
      1 N1           0.8560    -1.1690     0.0000 n4         1 MOL      -0.597725
      2 H1           1.8160    -0.8560     0.0000 hn         1 MOL       0.395976
      3 C1           0.0000     0.0000     0.0000 c3         1 MOL       0.053957
      4 H2           0.6670    -1.6380    -0.8750 hn         1 MOL       0.395976
      5 H3           0.6670    -1.6380     0.8750 hn         1 MOL       0.395976
      6 C2           0.8380     1.2710     0.0000 c          1 MOL       0.731974
      7 H4          -0.6290    -0.0100    -0.8900 hx         1 MOL       0.056920
      8 H5          -0.6290    -0.0100     0.8900 hx         1 MOL       0.056920
      9 O1           2.0940     1.1960     0.0000 o          1 MOL      -0.744987
     10 O2           0.1980     2.5490     0.0000 o          1 MOL      -0.744987
@<TRIPOS>BOND
     1     1     2 1   
     2     1     3 1   
     3     1     4 1   
     4     1     5 1   
     5     3     6 1   
     6     3     7 1   
     7     3     8 1   
     8     6     9 1   
     9     6    10 1   
@<TRIPOS>SUBSTRUCTURE
     1 MOL         1 TEMP              0 ****  ****    0 ROOT
